# TiO2_rutile fitted by PDFgui

data_3D
_audit_creation_date            2010-03-21
_audit_creation_method          P_cif.py

_chemical_name 'Rutile'
_chemical_formula_sum 'Ti O2'

_cell_length_a                  4.60586
_cell_length_b                  4.60586
_cell_length_c                  2.9544
_cell_angle_alpha               90
_cell_angle_beta                90
_cell_angle_gamma               90

_symmetry_space_group_name_H-M 'P 42/m n m'

loop_
_symmetry_equiv_pos_as_xyz
  'x,y,z'
  '-y,-x,z'
  'y,x,-z'
  '1/2+y,1/2-x,1/2-z'
  '1/2-y,1/2+x,1/2+z'
  '1/2+x,1/2-y,1/2+z'
  '1/2-x,1/2+y,1/2-z'
  'x,y,-z'
  '-x,-y,z'
  'y,x,z'
  '-y,-x,-z'
  '1/2-y,1/2+x,1/2-z'
  '1/2+y,1/2-x,1/2+z'
  '1/2-x,1/2+y,1/2+z'
  '1/2+x,1/2-y,1/2-z'
  '-x,-y,-z'

loop_
  _atom_site_label
  _atom_site_type_symbol
  _atom_site_fract_x
  _atom_site_fract_y
  _atom_site_fract_z
  _atom_site_U_iso_or_equiv
  _atom_site_adp_type
  _atom_site_occupancy
  Ti1   Ti     0.000000    0.000000    0.000000    0.007629 Uani  1.0000
  O1    O      0.305100    0.305100    0.000000    0.017058 Uani  1.0000

loop_
  _atom_site_aniso_label
  _atom_site_aniso_U_11
  _atom_site_aniso_U_22
  _atom_site_aniso_U_33
  _atom_site_aniso_U_12
  _atom_site_aniso_U_13
  _atom_site_aniso_U_23
  Ti1    0.008698  0.008698  0.005492  0.000000  0.000000  0.000000
  O1     0.021733  0.021733  0.007707  0.000000  0.000000  0.000000
